Output_case1_3p/output_voltage_566.csv
# Output_case1_3p\output_voltage_566.csv run at 2000-01-01 09:26:00 EST on 963 nodes
node_name,voltA_mag,voltA_angle,voltB_mag,voltB_angle,voltC_mag,voltC_angle
SourceBus,6668.395609,0.000000,6668.395609,4.188790,6668.395609,2.094395
Bus1,251.830416,-0.526492,251.830416,3.662299,251.830416,1.567903
Bus2,251.796456,-0.526470,251.796456,3.662320,251.796456,1.567925
Bus3,251.792896,-0.526468,251.792896,3.662322,251.792896,1.567927
Bus4,251.789560,-0.526466,251.789560,3.662324,251.789560,1.567929
Bus5,251.786652,-0.526464,251.786652,3.662326,251.786652,1.567931
Bus6,251.782071,-0.526461,251.782071,3.662329,251.782071,1.567934
Bus7,251.470114,-0.526263,251.470114,3.662527,251.470114,1.568132
Bus8,251.456142,-0.526255,251.456142,3.662536,251.456142,1.568141
Bus9,251.444513,-0.526247,251.444513,3.662543,251.444513,1.568148
Bus10,251.434307,-0.526241,251.434307,3.662550,251.434307,1.568154
Bus11,251.426692,-0.526236,251.426692,3.662554,251.426692,1.568159
Bus12,251.419544,-0.526231,251.419544,3.662559,251.419544,1.568164
Bus13,251.415148,-0.526229,251.415148,3.662562,251.415148,1.568167
Bus14,251.404204,-0.526222,251.404204,3.662569,251.404204,1.568174
Bus15,251.315552,-0.526165,251.315552,3.662625,251.315552,1.568230
Bus16,251.315552,-0.526165,251.315552,3.662625,251.315552,1.568230
Bus17,251.208048,-0.526097,251.208048,3.662693,251.208048,1.568298
Bus18,251.315552,-0.526165,251.315552,3.662625,251.315552,1.568230
Bus19,251.200651,-0.526092,251.200651,3.662698,251.200651,1.568303
Bus20,251.315552,-0.526165,251.315552,3.662625,251.315552,1.568230
Bus21,251.192345,-0.526087,251.192345,3.662703,251.192345,1.568308
Bus22,251.315552,-0.526165,251.315552,3.662625,251.315552,1.568230
Bus23,251.178821,-0.526078,251.178821,3.662712,251.178821,1.568317
Bus24,251.315552,-0.526165,251.315552,3.662625,251.315552,1.568230
Bus25,251.154218,-0.526063,251.154218,3.662727,251.154218,1.568332
Bus26,251.315552,-0.526165,251.315552,3.662625,251.315552,1.568230
Bus27,251.147516,-0.526056,251.147516,3.662734,251.147516,1.568339
Bus28,250.850426,-0.525869,250.850426,3.662921,250.850426,1.568526
Bus29,251.315552,-0.526165,251.315552,3.662625,251.315552,1.568230
Bus30,251.146201,-0.526055,251.146201,3.662735,251.146201,1.568340
Bus31,251.146998,-0.526056,251.146998,3.662735,251.146998,1.568339
Bus32,250.769553,-0.525818,250.769553,3.662973,250.769553,1.568577
Bus33,251.315552,-0.526165,251.315552,3.662625,251.315552,1.568230
Bus34,251.143190,-0.526052,251.143190,3.662738,251.143190,1.568343
Bus35,251.146981,-0.526056,251.146981,3.662735,251.146981,1.568339
Bus36,250.729087,-0.525778,250.729087,3.663012,250.729087,1.568617
Bus37,250.547591,-0.525676,250.547591,3.663114,250.547591,1.568719
Bus38,251.315552,-0.526165,251.315552,3.662625,251.315552,1.568230
Bus39,251.146956,-0.526056,251.146956,3.662735,251.146956,1.568340
Bus40,250.727839,-0.525777,250.727839,3.663013,250.727839,1.568618
Bus41,250.721957,-0.525771,250.721957,3.663019,250.721957,1.568624
Bus42,250.393568,-0.525578,250.393568,3.663213,250.393568,1.568818
Bus43,250.547591,-0.525676,250.547591,3.663114,250.547591,1.568719
Bus44,251.315552,-0.526165,251.315552,3.662625,251.315552,1.568230
Bus45,251.146923,-0.526056,251.146923,3.662735,251.146923,1.568340
Bus46,250.727277,-0.525776,250.727277,3.663014,250.727277,1.568619
Bus47,250.704801,-0.525754,250.704801,3.663036,250.704801,1.568641
Bus48,250.277181,-0.525503,250.277181,3.663287,250.277181,1.568892
Bus49,250.547591,-0.525676,250.547591,3.663114,250.547591,1.568719
Bus50,251.315552,-0.526165,251.315552,3.662625,251.315552,1.568230
Bus51,251.146844,-0.526055,251.146844,3.662735,251.146844,1.568340
Bus52,250.726681,-0.525776,250.726681,3.663015,250.726681,1.568619
Bus53,250.260400,-0.525492,250.260400,3.663298,250.260400,1.568903
Bus54,250.277181,-0.525503,250.277181,3.663287,250.277181,1.568892
Bus55,250.547591,-0.525676,250.547591,3.663114,250.547591,1.568719
Bus56,251.315552,-0.526165,251.315552,3.662625,251.315552,1.568230
Bus57,251.146777,-0.526055,251.146777,3.662735,251.146777,1.568340
Bus58,250.726113,-0.525775,250.726113,3.663015,250.726113,1.568620
Bus59,250.184389,-0.525444,250.184389,3.663347,250.184389,1.568951
Bus60,250.277181,-0.525503,250.277181,3.663287,250.277181,1.568892
Bus61,250.547591,-0.525676,250.547591,3.663114,250.547591,1.568719
Bus62,251.315552,-0.526165,251.315552,3.662625,251.315552,1.568230
Bus63,251.146454,-0.526055,251.146454,3.662735,251.146454,1.568340
Bus64,250.725773,-0.525775,250.725773,3.663015,250.725773,1.568620
Bus65,250.169042,-0.525434,250.169042,3.663356,250.169042,1.568961
Bus66,250.180478,-0.525440,250.180478,3.663350,250.180478,1.568955
Bus67,250.277181,-0.525503,250.277181,3.663287,250.277181,1.568892
Bus68,250.547591,-0.525676,250.547591,3.663114,250.547591,1.568719
Bus69,251.315552,-0.526165,251.315552,3.662625,251.315552,1.568230
Bus70,251.145312,-0.526054,251.145312,3.662736,251.145312,1.568341
Bus71,250.725106,-0.525774,250.725106,3.663016,250.725106,1.568621
Bus72,249.987719,-0.525318,249.987719,3.663473,249.987719,1.569078
Bus73,250.180198,-0.525440,250.180198,3.663351,250.180198,1.568956
Bus74,250.178846,-0.525438,250.178846,3.663352,250.178846,1.568957
Bus75,250.277181,-0.525503,250.277181,3.663287,250.277181,1.568892
Bus76,250.547591,-0.525676,250.547591,3.663114,250.547591,1.568719
Bus77,251.315552,-0.526165,251.315552,3.662625,251.315552,1.568230
Bus78,250.721726,-0.525771,250.721726,3.663019,250.721726,1.568624
Bus79,249.924516,-0.525277,249.924516,3.663513,249.924516,1.569118
Bus80,250.277181,-0.525503,250.277181,3.663287,250.277181,1.568892
Bus81,250.547591,-0.525676,250.547591,3.663114,250.547591,1.568719
Bus82,251.315552,-0.526165,251.315552,3.662625,251.315552,1.568230
Bus83,250.708988,-0.525758,250.708988,3.663032,250.708988,1.568637
Bus84,249.910723,-0.525268,249.910723,3.663522,249.910723,1.569127
Bus85,250.277181,-0.525503,250.277181,3.663287,250.277181,1.568892
Bus86,250.547591,-0.525676,250.547591,3.663114,250.547591,1.568719
Bus87,251.315552,-0.526165,251.315552,3.662625,251.315552,1.568230
Bus88,249.882752,-0.525250,249.882752,3.663540,249.882752,1.569145
Bus89,250.277181,-0.525503,250.277181,3.663287,250.277181,1.568892
Bus90,250.547591,-0.525676,250.547591,3.663114,250.547591,1.568719
Bus91,251.315552,-0.526165,251.315552,3.662625,251.315552,1.568230
Bus92,249.856376,-0.525233,249.856376,3.663557,249.856376,1.569162
Bus93,250.547591,-0.525676,250.547591,3.663114,250.547591,1.568719
Bus94,251.315552,-0.526165,251.315552,3.662625,251.315552,1.568230
Bus95,249.841044,-0.525223,249.841044,3.663567,249.841044,1.569172
Bus96,250.547591,-0.525676,250.547591,3.663114,250.547591,1.568719
Bus97,251.315552,-0.526165,251.315552,3.662625,251.315552,1.568230
Bus98,249.830919,-0.525217,249.830919,3.663573,249.830919,1.569178
Bus99,250.547591,-0.525676,250.547591,3.663114,250.547591,1.568719
Bus100,251.315552,-0.526165,251.315552,3.662625,251.315552,1.568230
Bus101,249.816939,-0.525208,249.816939,3.663582,249.816939,1.569187
Bus102,250.547591,-0.525676,250.547591,3.663114,250.547591,1.568719
Bus103,251.315552,-0.526165,251.315552,3.662625,251.315552,1.568230
Bus104,249.816786,-0.525208,249.816786,3.663582,249.816786,1.569187
Bus105,249.808460,-0.525202,249.808460,3.663588,249.808460,1.569193
Bus106,250.547591,-0.525676,250.547591,3.663114,250.547591,1.568719
Bus107,249.816602,-0.525208,249.816602,3.663582,249.816602,1.569187
Bus108,249.803652,-0.525199,249.803652,3.663591,249.803652,1.569196
Bus109,250.547591,-0.525676,250.547591,3.663114,250.547591,1.568719
Bus110,249.816387,-0.525209,249.816387,3.663582,249.816387,1.569186
Bus111,249.613945,-0.525077,249.613945,3.663713,249.613945,1.569318
Bus112,250.547591,-0.525676,250.547591,3.663114,250.547591,1.568719
Bus113,249.816061,-0.525209,249.816061,3.663581,249.816061,1.569186
Bus114,249.594940,-0.525065,249.594940,3.663725,249.594940,1.569330
Bus115,250.547591,-0.525676,250.547591,3.663114,250.547591,1.568719
Bus116,249.815641,-0.525210,249.815641,3.663580,249.815641,1.569185
Bus117,249.594877,-0.525065,249.594877,3.663725,249.594877,1.569330
Bus118,249.536940,-0.525052,249.536940,3.663738,249.536940,1.569343
Bus119,250.547591,-0.525676,250.547591,3.663114,250.547591,1.568719
Bus120,249.815339,-0.525210,249.815339,3.663580,249.815339,1.569185
Bus121,249.594877,-0.525065,249.594877,3.663725,249.594877,1.569330
Bus122,249.594846,-0.525065,249.594846,3.663725,249.594846,1.569330
Bus123,249.432344,-0.525028,249.432344,3.663762,249.432344,1.569367
Bus124,250.547591,-0.525676,250.547591,3.663114,250.547591,1.568719
Bus125,249.814913,-0.525211,249.814913,3.663579,249.814913,1.569184
Bus126,249.594877,-0.525065,249.594877,3.663725,249.594877,1.569330
Bus127,249.594700,-0.525066,249.594700,3.663725,249.594700,1.569330
Bus128,249.385307,-0.525017,249.385307,3.663773,249.385307,1.569378
Bus129,250.547591,-0.525676,250.547591,3.663114,250.547591,1.568719
Bus130,249.814452,-0.525211,249.814452,3.663579,249.814452,1.569184
Bus131,249.594877,-0.525065,249.594877,3.663725,249.594877,1.569330
Bus132,249.594424,-0.525065,249.594424,3.663725,249.594424,1.569330
Bus133,249.594337,-0.525066,249.594337,3.663724,249.594337,1.569329
Bus134,249.371312,-0.525014,249.371312,3.663776,249.371312,1.569381
Bus135,250.547591,-0.525676,250.547591,3.663114,250.547591,1.568719
Bus136,249.814017,-0.525212,249.814017,3.663578,249.814017,1.569183
Bus137,249.594877,-0.525065,249.594877,3.663725,249.594877,1.569330
Bus138,249.594401,-0.525065,249.594401,3.663725,249.594401,1.569330
Bus139,249.594066,-0.525066,249.594066,3.663724,249.594066,1.569329
Bus140,249.355515,-0.525011,249.355515,3.663780,249.355515,1.569384
Bus141,250.547591,-0.525676,250.547591,3.663114,250.547591,1.568719
Bus142,249.813303,-0.525213,249.813303,3.663577,249.813303,1.569182
Bus143,249.594877,-0.525065,249.594877,3.663725,249.594877,1.569330
Bus144,249.594377,-0.525065,249.594377,3.663725,249.594377,1.569330
Bus145,249.593885,-0.525067,249.593885,3.663724,249.593885,1.569328
Bus146,249.340658,-0.525007,249.340658,3.663783,249.340658,1.569388
Bus147,250.547591,-0.525676,250.547591,3.663114,250.547591,1.568719
Bus148,249.809904,-0.525218,249.809904,3.663573,249.809904,1.569177
Bus149,249.594877,-0.525065,249.594877,3.663725,249.594877,1.569330
Bus150,249.594358,-0.525065,249.594358,3.663725,249.594358,1.569330
Bus151,249.593747,-0.525067,249.593747,3.663723,249.593747,1.569328
Bus152,249.593238,-0.525066,249.593238,3.663724,249.593238,1.569329
Bus153,249.323322,-0.525003,249.323322,3.663787,249.323322,1.569392
Bus154,250.547591,-0.525676,250.547591,3.663114,250.547591,1.568719
Bus155,249.809164,-0.525219,249.809164,3.663572,249.809164,1.569176
Bus156,249.594877,-0.525065,249.594877,3.663725,249.594877,1.569330
Bus157,249.594330,-0.525065,249.594330,3.663725,249.594330,1.569330
Bus158,249.593380,-0.525067,249.593380,3.663723,249.593380,1.569328
Bus159,249.593199,-0.525066,249.593199,3.663724,249.593199,1.569329
Bus160,249.318334,-0.525002,249.318334,3.663788,249.318334,1.569393
Bus161,250.547591,-0.525676,250.547591,3.663114,250.547591,1.568719
Bus162,249.805673,-0.525215,249.805673,3.663575,249.805673,1.569180
Bus163,249.806513,-0.525222,249.806513,3.663568,249.806513,1.569173
Bus164,249.594877,-0.525065,249.594877,3.663725,249.594877,1.569330
Bus165,249.594296,-0.525065,249.594296,3.663725,249.594296,1.569330
Bus166,249.593252,-0.525068,249.593252,3.663723,249.593252,1.569328
Bus167,249.593163,-0.525066,249.593163,3.663724,249.593163,1.569329
Bus168,249.289996,-0.524996,249.289996,3.663794,249.289996,1.569399
Bus169,250.547591,-0.525676,250.547591,3.663114,250.547591,1.568719
Bus170,249.805013,-0.525215,249.805013,3.663576,249.805013,1.569181
Bus171,249.802992,-0.525227,249.802992,3.663563,249.802992,1.569168
Bus172,249.594877,-0.525065,249.594877,3.663725,249.594877,1.569330
Bus173,249.594270,-0.525065,249.594270,3.663725,249.594270,1.569330
Bus174,249.593252,-0.525068,249.593252,3.663723,249.593252,1.569328
Bus175,249.591524,-0.525066,249.591524,3.663724,249.591524,1.569329
Bus176,249.593148,-0.525066,249.593148,3.663724,249.593148,1.569329
Bus177,249.273990,-0.524992,249.273990,3.663798,249.273990,1.569403
Bus178,249.803653,-0.525213,249.803653,3.663577,249.803653,1.569182
Bus179,249.802839,-0.525227,249.802839,3.663563,249.802839,1.569168
Bus180,249.793428,-0.525218,249.793428,3.663572,249.793428,1.569177
Bus181,249.594877,-0.525065,249.594877,3.663725,249.594877,1.569330
Bus182,249.594240,-0.525065,249.594240,3.663725,249.594240,1.569330
Bus183,249.593252,-0.525068,249.593252,3.663723,249.593252,1.569328
Bus184,249.591338,-0.525066,249.591338,3.663725,249.591338,1.569329
Bus185,249.593116,-0.525066,249.593116,3.663724,249.593116,1.569329
Bus186,249.262108,-0.524989,249.262108,3.663801,249.262108,1.569406
Bus187,249.802238,-0.525228,249.802238,3.663562,249.802238,1.569167
Bus188,249.753841,-0.525179,249.753841,3.663611,249.753841,1.569216
Bus189,249.594877,-0.525065,249.594877,3.663725,249.594877,1.569330
Bus190,249.594212,-0.525065,249.594212,3.663725,249.594212,1.569330
Bus191,249.593252,-0.525068,249.593252,3.663723,249.593252,1.569328
Bus192,249.593252,-0.525068,249.593252,3.663723,249.593252,1.569328
Bus193,249.591157,-0.525065,249.591157,3.663725,249.591157,1.569330
Bus194,249.593034,-0.525066,249.593034,3.663724,249.593034,1.569329
Bus195,249.251426,-0.524987,249.251426,3.663803,249.251426,1.569408
Bus196,249.801163,-0.525230,249.801163,3.663561,249.801163,1.569165
Bus197,249.747373,-0.525172,249.747373,3.663618,249.747373,1.569223
Bus198,249.753108,-0.525178,249.753108,3.663612,249.753108,1.569217
Bus199,249.594877,-0.525065,249.594877,3.663725,249.594877,1.569330
Bus200,249.594182,-0.525065,249.594182,3.663725,249.594182,1.569330
...
SourceBus_1,6665.430511,-0.000704,6665.430511,4.188086,6665.430511,2.093691
LOAD1,251.143190,-0.526052,251.143190,3.662738,251.143190,1.568343
LOAD2,250.704801,-0.525754,250.704801,3.663036,250.704801,1.568641
LOAD3,251.145312,-0.526054,251.145312,3.662736,251.145312,1.568341
LOAD4,250.180198,-0.525440,250.180198,3.663351,250.180198,1.568956
LOAD5,250.178846,-0.525438,250.178846,3.663352,250.178846,1.568957
LOAD6,250.708988,-0.525758,250.708988,3.663032,250.708988,1.568637
LOAD7,249.803653,-0.525213,249.803653,3.663577,249.803653,1.569182
LOAD8,249.731018,-0.525156,249.731018,3.663634,249.731018,1.569239
LOAD9,249.787834,-0.525217,249.787834,3.663574,249.787834,1.569179
LOAD10,249.791498,-0.525221,249.791498,3.663569,249.791498,1.569174
LOAD11,249.788773,-0.525219,249.788773,3.663572,249.788773,1.569177
LOAD12,249.748510,-0.525174,249.748510,3.663617,249.748510,1.569222
LOAD13,249.592045,-0.525065,249.592045,3.663725,249.592045,1.569330
LOAD14,249.593664,-0.525065,249.593664,3.663726,249.593664,1.569331
LOAD15,249.592168,-0.525065,249.592168,3.663725,249.592168,1.569330
LOAD16,249.588431,-0.525063,249.588431,3.663727,249.588431,1.569332
LOAD17,249.587864,-0.525062,249.587864,3.663728,249.587864,1.569333
LOAD18,248.743511,-0.524762,248.743511,3.664028,248.743511,1.569633
LOAD19,249.078408,-0.524944,249.078408,3.663847,249.078408,1.569451
LOAD20,248.624048,-0.524605,248.624048,3.664185,248.624048,1.569790
LOAD21,249.144528,-0.524960,249.144528,3.663830,249.144528,1.569435
LOAD22,248.717302,-0.524698,248.717302,3.664093,248.717302,1.569697
LOAD23,248.440055,-0.524486,248.440055,3.664304,248.440055,1.569909
LOAD24,248.966035,-0.524919,248.966035,3.663871,248.966035,1.569476
LOAD25,248.379070,-0.524499,248.379070,3.664291,248.379070,1.569896
LOAD26,248.782110,-0.524854,248.782110,3.663937,248.782110,1.569541
LOAD27,248.915424,-0.524896,248.915424,3.663894,248.915424,1.569499
LOAD28,248.916013,-0.524897,248.916013,3.663894,248.916013,1.569499
LOAD29,248.445356,-0.524569,248.445356,3.664221,248.445356,1.569826
LOAD30,248.335561,-0.524456,248.335561,3.664334,248.335561,1.569939
LOAD31,248.444489,-0.524568,248.444489,3.664222,248.444489,1.569827
LOAD32,248.770369,-0.524861,248.770369,3.663930,248.770369,1.569534
LOAD33,248.429642,-0.524558,248.429642,3.664233,248.429642,1.569838
LOAD34,248.517019,-0.524616,248.517019,3.664174,248.517019,1.569779
LOAD35,248.430670,-0.524559,248.430670,3.664231,248.430670,1.569836
LOAD36,248.427689,-0.524555,248.427689,3.664236,248.427689,1.569840
LOAD37,248.430382,-0.524557,248.430382,3.664233,248.430382,1.569838
LOAD38,248.761549,-0.524869,248.761549,3.663921,248.761549,1.569526
LOAD39,248.739098,-0.524868,248.739098,3.663922,248.739098,1.569527
LOAD40,248.681770,-0.524829,248.681770,3.663961,248.681770,1.569566
LOAD41,248.649330,-0.524820,248.649330,3.663970,248.649331,1.569575
LOAD42,248.739044,-0.524868,248.739044,3.663922,248.739044,1.569527
LOAD43,248.610655,-0.524795,248.610655,3.663995,248.610655,1.569600
LOAD44,248.757506,-0.524838,248.757506,3.663953,248.757506,1.569558
LOAD45,248.650556,-0.524822,248.650556,3.663969,248.650556,1.569574
LOAD46,248.753529,-0.524866,248.753529,3.663924,248.753529,1.569529
LOAD47,248.608616,-0.524793,248.608616,3.663997,248.608616,1.569602
LOAD48,248.752669,-0.524865,248.752669,3.663925,248.752669,1.569530
LOAD49,248.749732,-0.524862,248.749732,3.663928,248.749732,1.569533
LOAD50,248.460126,-0.524668,248.460126,3.664122,248.460126,1.569727
LOAD51,248.681005,-0.524839,248.681005,3.663951,248.681005,1.569556
LOAD52,248.574821,-0.524773,248.574821,3.664017,248.574821,1.569622
LOAD53,248.493262,-0.524702,248.493262,3.664088,248.493262,1.569693
LOAD54,248.678943,-0.524837,248.678943,3.663953,248.678943,1.569558
LOAD55,248.574746,-0.524773,248.574746,3.664017,248.574746,1.569622
